# Initial Conditions Package file created on 7/13/2025 by ModelMuse version 5.3.1.0.
BEGIN OPTIONS
END OPTIONS

BEGIN GRIDDATA
  STRT LAYERED
    INTERNAL IPRN     12 # STRT Upper Aquifer
        5.668190960693E+002   5.674693438721E+002   5.680756567383E+002   5.686325781250E+002   5.691637677002E+002   5.695523162842E+002   5.698367517090E+002   5.699724096680E+002   5.698927667236E+002   5.697699566650E+002 
        5.695870678711E+002   5.694558642578E+002   5.691675250244E+002   5.687422082520E+002   5.682355883789E+002   5.677583673096E+002   5.674454687500E+002   5.672023852539E+002   5.669784558105E+002   5.667369805908E+002 
        5.662630371094E+002   5.662018261719E+002   5.663219781494E+002   5.665331378174E+002   5.664888891602E+002   5.659253265381E+002   5.650875000000E+002   5.640092071533E+002   5.631922760010E+002   5.632034381104E+002 
        5.636326770020E+002   5.637227160645E+002   5.635481457520E+002   5.632815057373E+002   5.623442700195E+002   5.614266870117E+002   5.608983087158E+002   5.606070349121E+002   5.603351953125E+002   5.602935540771E+002 
        5.606835162354E+002   5.609777844238E+002   5.611299664307E+002   5.602665673828E+002   5.589900854492E+002   5.577999768066E+002   5.569469781494E+002   5.562817889404E+002   5.556559356689E+002   5.549911340332E+002 
        5.543426751709E+002   5.537030657959E+002   5.532616656494E+002   5.528594659424E+002   5.516898553467E+002   5.505741973877E+002   5.494896661377E+002   5.485352056885E+002   5.476880554199E+002   5.469489855957E+002 
        5.460691259766E+002   5.451507788086E+002   5.441710382080E+002   5.432050549316E+002   5.423144702148E+002   5.416014941406E+002   5.410324530029E+002   5.405993487549E+002   5.402027465820E+002   5.398160827637E+002 
        5.394801177979E+002   5.392048663330E+002   5.389992144775E+002   5.388750885010E+002   5.388010260010E+002   5.388322125244E+002   5.385338677979E+002   5.382476257324E+002   5.379889172363E+002   5.376491223145E+002 
        5.374530242920E+002   5.374806378174E+002   5.376573077393E+002   5.378734564209E+002   5.378182830811E+002   5.375763635254E+002   5.375315539551E+002   5.379502679443E+002   5.386424444580E+002   5.390599932861E+002 
        5.391552282715E+002   5.396181976318E+002   5.404090557861E+002   5.411050164795E+002   5.417639862061E+002   5.425694665527E+002   5.434866162109E+002   5.439190277100E+002   5.439449157715E+002   5.434730969238E+002 
        5.422179437256E+002   5.416865838623E+002   5.415738659668E+002   5.412590850830E+002   5.418009832764E+002   5.424951336670E+002   5.428392266846E+002   5.428423748779E+002   5.424837457275E+002   5.424883972168E+002 
        5.427888470459E+002   5.433276348877E+002   5.447953552246E+002   5.473691058350E+002   5.483895666504E+002   5.499186566162E+002   5.517579260254E+002   5.532909045410E+002   5.540492462158E+002   5.544546185303E+002 
        5.546484478760E+002   5.544481884766E+002   5.539150091553E+002   5.528220263672E+002   5.511544287109E+002   5.494632458496E+002   5.473470281982E+002   5.450474090576E+002   5.432121765137E+002   5.421401678467E+002 
        5.418002258301E+002   5.416384460449E+002 
        5.672128961182E+002   5.677627850342E+002   5.683469482422E+002   5.689657861328E+002   5.695907464600E+002   5.701225286865E+002   5.704934289551E+002   5.707087878418E+002   5.707071582031E+002   5.705366674805E+002 
        5.702919464111E+002   5.701326605225E+002   5.698785540771E+002   5.694364068604E+002   5.689477252197E+002   5.684710955811E+002   5.681020977783E+002   5.677554284668E+002   5.674329553223E+002   5.671876953125E+002 
        5.667867755127E+002   5.665886163330E+002   5.667277655029E+002   5.669228973389E+002   5.669420770264E+002   5.665446459961E+002   5.656531585693E+002   5.648046765137E+002   5.636338165283E+002   5.633021966553E+002 
        5.636718157959E+002   5.642515545654E+002   5.643076733398E+002   5.640679180908E+002   5.637985589600E+002   5.627557781982E+002   5.616227630615E+002   5.611317864990E+002   5.608183770752E+002   5.606817712402E+002 
        5.611802746582E+002   5.614124188232E+002   5.613690197754E+002   5.611616571045E+002   5.596734588623E+002   5.584190875244E+002   5.575206988525E+002   5.568487878418E+002   5.562450561523E+002   5.555882769775E+002 
        5.549611968994E+002   5.543019342041E+002   5.538252551270E+002   5.533211053467E+002   5.522687463379E+002   5.511177484131E+002   5.498664575195E+002   5.488979547119E+002   5.480358770752E+002   5.473129870605E+002 
        5.464633789062E+002   5.455915258789E+002   5.446479272461E+002   5.436666149902E+002   5.427643377686E+002   5.420716345215E+002   5.415116943359E+002   5.410055950928E+002   5.405548077393E+002   5.401385766602E+002 
        5.397409667969E+002   5.394346868896E+002   5.392240765381E+002   5.390762872314E+002   5.389360070801E+002   5.388950683594E+002   5.385598870850E+002   5.381561260986E+002   5.378126831055E+002   5.375691271973E+002 
        5.374970935059E+002   5.375779846191E+002   5.378645233154E+002   5.382179370117E+002   5.381980462646E+002   5.379052349854E+002   5.378306378174E+002   5.382105346680E+002   5.388573748779E+002   5.391788555908E+002 
        5.394382574463E+002   5.400097766113E+002   5.406938439941E+002   5.416624652100E+002   5.426619952393E+002   5.437210040283E+002   5.447792468262E+002   5.451577264404E+002   5.452902325439E+002   5.446877148437E+002 
        5.433419458008E+002   5.423367749023E+002   5.419071862793E+002   5.411640484619E+002   5.411357073975E+002   5.416261950684E+002   5.414441937256E+002   5.408392547607E+002   5.411512860107E+002   5.414202166748E+002 
        5.421026257324E+002   5.426141674805E+002   5.435519171143E+002   5.456062951660E+002   5.479243225098E+002   5.492897436523E+002   5.502797583008E+002   5.513945837402E+002   5.522675531006E+002   5.526507745361E+002 
        5.529774169922E+002   5.530607299805E+002   5.525574371338E+002   5.514510974121E+002   5.499068261719E+002   5.477413171387E+002   5.454785968018E+002   5.433195050049E+002   5.414235449219E+002   5.403597869873E+002 
        5.404696252441E+002   5.406240582275E+002 
        5.674213964844E+002   5.678772283936E+002   5.684544580078E+002   5.691366461182E+002   5.698608074951E+002   5.705653399658E+002   5.711282427979E+002   5.713783099365E+002   5.713482574463E+002   5.711726568604E+002 
        5.710077886963E+002   5.707579357910E+002   5.703756262207E+002   5.700288751221E+002   5.696117956543E+002   5.692100665283E+002   5.688801940918E+002   5.684087200928E+002   5.678580340576E+002   5.674634271240E+002 
        5.672180773926E+002   5.668671881104E+002   5.670586572266E+002   5.672603564453E+002   5.673918481445E+002   5.671048962402E+002   5.663258581543E+002   5.654864855957E+002   5.644725958252E+002   5.638002453613E+002 
        5.640204449463E+002   5.647894470215E+002   5.650955865479E+002   5.649843212891E+002   5.647130761719E+002   5.641174481201E+002   5.626309271240E+002   5.618111785889E+002   5.614291473389E+002   5.614302075195E+002 
        5.617611267090E+002   5.619536621094E+002   5.618438165283E+002   5.616183239746E+002   5.606255560303E+002   5.591349462891E+002   5.581496264648E+002   5.574591168213E+002   5.568811883545E+002   5.562304541016E+002 
        5.556205932617E+002   5.549469372559E+002   5.542802856445E+002   5.535542987061E+002   5.527541278076E+002   5.518640063477E+002   5.505293353271E+002   5.493657910156E+002   5.483690875244E+002   5.476882873535E+002 
        5.469012756348E+002   5.460369189453E+002   5.451020257568E+002   5.441342053223E+002   5.432402642822E+002   5.424868939209E+002   5.419042364502E+002   5.413848297119E+002   5.409339038086E+002   5.405032269287E+002 
        5.400790045166E+002   5.396924536133E+002   5.393788732910E+002   5.391488854980E+002   5.390035260010E+002   5.389736041260E+002   5.386634381104E+002   5.381786145020E+002   5.378425079346E+002   5.376187744141E+002 
        5.375666949463E+002   5.376938848877E+002   5.381307958984E+002   5.386601568604E+002   5.388101849365E+002   5.385511468506E+002   5.384107861328E+002   5.387328063965E+002   5.393650671387E+002   5.397316516113E+002 
        5.400246984863E+002   5.405287957764E+002   5.415189154053E+002   5.427246350098E+002   5.438265075684E+002   5.448047967529E+002   5.457634252930E+002   5.462130047607E+002   5.462052648926E+002   5.455508050537E+002 
        5.436363452148E+002   5.426154754639E+002   5.421054150391E+002   5.411334344482E+002   5.406367663574E+002   5.406334332275E+002   5.401345349121E+002   5.386708038330E+002   5.393739355469E+002   5.402528582764E+002 
        5.410575598145E+002   5.419401965332E+002   5.429295074463E+002   5.449702856445E+002   5.476349475098E+002   5.488553552246E+002   5.490028063965E+002   5.494790039062E+002   5.500822155762E+002   5.504061859131E+002 
        5.507892077637E+002   5.510509637451E+002   5.509216558838E+002   5.502116790771E+002   5.484131451416E+002   5.457125079346E+002   5.437233178711E+002   5.421694281006E+002   5.407299462891E+002   5.401633465576E+002 
        5.407032647705E+002   5.411083581543E+002 
        5.674498889160E+002   5.680762091064E+002   5.685161560059E+002   5.692147979736E+002   5.699661059570E+002   5.706607202148E+002   5.712025799561E+002   5.714807965088E+002   5.715786553955E+002   5.715685479736E+002 
        5.714695867920E+002   5.712574786377E+002   5.710780676270E+002   5.708303387451E+002   5.704549456787E+002   5.700253088379E+002   5.695704071045E+002   5.689824072266E+002   5.683790576172E+002   5.679266888428E+002 
        5.677840551758E+002   5.673985864258E+002   5.675602587891E+002   5.677488702393E+002   5.677949963379E+002   5.675598547363E+002   5.669662451172E+002   5.660943469238E+002   5.653673266602E+002   5.645247363281E+002 
        5.648480584717E+002   5.655477563477E+002   5.657872686768E+002   5.656691253662E+002   5.654177392578E+002   5.650862658691E+002   5.637370153809E+002   5.625677862549E+002   5.622901226807E+002   5.621734881592E+002 
        5.623887084961E+002   5.625409851074E+002   5.624161743164E+002   5.619935479736E+002   5.615440576172E+002   5.599542083740E+002   5.588556665039E+002   5.581608477783E+002   5.575789575195E+002   5.569656860352E+002 
        5.563055865479E+002   5.555931170654E+002   5.547828045654E+002   5.539542675781E+002   5.531400134277E+002   5.522596051025E+002   5.511510339355E+002   5.497977899170E+002   5.487575286865E+002   5.480057861328E+002 
        5.472390954590E+002   5.464447094727E+002   5.455427740479E+002   5.445662603760E+002   5.436521459961E+002   5.428876348877E+002   5.423309246826E+002   5.418634655762E+002   5.414100360107E+002   5.408841162109E+002 
        5.403190374756E+002   5.398534899902E+002   5.395075268555E+002   5.392659350586E+002   5.391102740479E+002   5.390555474854E+002   5.387899755859E+002   5.382102062988E+002   5.378572070313E+002   5.376415728760E+002 
        5.375948077393E+002   5.377899432373E+002   5.383953765869E+002   5.391622241211E+002   5.395540270996E+002   5.394497583008E+002   5.393267681885E+002   5.395618945312E+002   5.399149957275E+002   5.402438696289E+002 
        5.407439459229E+002   5.414386260986E+002   5.424293035889E+002   5.436651965332E+002   5.448327612305E+002   5.457578863525E+002   5.465466229248E+002   5.469712475586E+002   5.467826068115E+002   5.457824456787E+002 
        5.429655035400E+002   5.428928057861E+002   5.421632159424E+002   5.411750952148E+002   5.404841265869E+002   5.398673431396E+002   5.390277239990E+002   5.387903564453E+002   5.393887646484E+002   5.398888958740E+002 
        5.400703643799E+002   5.412143780518E+002   5.425377075195E+002   5.446956024170E+002   5.469776068115E+002   5.477409875488E+002   5.476490789795E+002   5.475779235840E+002   5.477781170654E+002   5.482240966797E+002 
        5.486761987305E+002   5.490150177002E+002   5.490189489746E+002   5.483097161865E+002   5.463187548828E+002   5.437066046143E+002   5.425826013184E+002   5.417951751709E+002   5.408593554687E+002   5.403380364990E+002 
        5.408546759033E+002   5.414499670410E+002 
        5.672810815430E+002   5.678888073730E+002   5.684632983398E+002   5.691581884766E+002   5.698116802979E+002   5.705472137451E+002   5.711919342041E+002   5.715048394775E+002   5.716643652344E+002   5.717164044189E+002 
        5.717395166016E+002   5.716153985596E+002   5.714807080078E+002   5.713275000000E+002   5.710426489258E+002   5.706272772217E+002   5.701829785156E+002   5.696300653076E+002   5.691028332520E+002   5.686615197754E+002 
        5.684167779541E+002   5.682759973145E+002   5.682482440186E+002   5.683781939697E+002   5.681942578125E+002   5.679372375488E+002   5.675407952881E+002   5.668280859375E+002   5.662209356689E+002   5.658027032471E+002 
        5.659579956055E+002   5.661053051758E+002   5.662255682373E+002   5.662338244629E+002   5.660798150635E+002   5.658066864014E+002   5.646554870605E+002   5.633444781494E+002   5.630523083496E+002   5.629473956299E+002 
        5.631555047607E+002   5.632449383545E+002   5.629451696777E+002   5.623973358154E+002   5.619666644287E+002   5.609436865234E+002   5.597020562744E+002   5.589420880127E+002   5.582783874512E+002   5.576586669922E+002 
        5.569361083984E+002   5.561911053467E+002   5.553492883301E+002   5.544546838379E+002   5.534494573975E+002   5.525963665771E+002   5.516557989502E+002   5.502720776367E+002   5.491617590332E+002   5.483665979004E+002 
        5.475431451416E+002   5.467512036133E+002   5.458924072266E+002   5.449888153076E+002   5.440945166016E+002   5.433691369629E+002   5.428022143555E+002   5.422803143311E+002   5.417609790039E+002   5.412364556885E+002 
        5.406704760742E+002   5.401444244385E+002   5.397301654053E+002   5.394714654541E+002   5.393105749512E+002   5.391889654541E+002   5.389365759277E+002   5.382679461670E+002   5.378744158936E+002   5.376956445312E+002 
        5.376501782227E+002   5.378579168701E+002   5.385799328613E+002   5.395647467041E+002   5.402191674805E+002   5.403360064697E+002   5.401876147461E+002   5.402666705322E+002   5.407211767578E+002   5.412368017578E+002 
        5.417543951416E+002   5.423151770020E+002   5.431338275146E+002   5.442591467285E+002   5.454643865967E+002   5.464809429932E+002   5.471540209961E+002   5.473559448242E+002   5.470117584229E+002   5.445523065186E+002 
        5.438265393066E+002   5.437149755859E+002   5.425460839844E+002   5.414388171387E+002   5.405530456543E+002   5.396163348389E+002   5.390545745850E+002   5.398830590820E+002   5.403905535889E+002   5.401710546875E+002 
        5.396053070068E+002   5.406054058838E+002   5.426408898926E+002   5.452135192871E+002   5.469592224121E+002   5.476518670654E+002   5.471663769531E+002   5.467857849121E+002   5.466196252441E+002   5.464479626465E+002 
        5.462591650391E+002   5.461388031006E+002   5.460580151367E+002   5.452593273926E+002   5.437563171387E+002   5.420458618164E+002   5.419834466553E+002   5.421107458496E+002   5.417064758301E+002   5.411050878906E+002 
        5.410940460205E+002   5.419316461182E+002 
        5.670072753906E+002   5.676070178223E+002   5.683029064941E+002   5.689571282959E+002   5.696732067871E+002   5.702533276367E+002   5.708553765869E+002   5.713190710449E+002   5.716446185303E+002   5.718040875244E+002 
        5.719614575195E+002   5.719677978516E+002   5.718773071289E+002   5.717768078613E+002   5.715108801270E+002   5.711218591309E+002   5.706319476318E+002   5.702830059814E+002   5.699548406982E+002   5.697054858398E+002 
        5.694612750244E+002   5.692691284180E+002   5.691562371826E+002   5.690250250244E+002   5.686303161621E+002   5.683853271484E+002   5.681714038086E+002   5.677298876953E+002   5.671037542725E+002   5.667527545166E+002 
        5.666765930176E+002   5.667843664551E+002   5.668180773926E+002   5.667554571533E+002   5.665262774658E+002   5.662444879150E+002   5.651768988037E+002   5.640093548584E+002   5.640542156982E+002   5.640808489990E+002 
        5.639903881836E+002   5.637905157471E+002   5.634104827881E+002   5.628452868652E+002   5.622829229736E+002   5.617756652832E+002   5.603800695801E+002   5.595716400146E+002   5.589198077393E+002   5.582803350830E+002 
        5.575472491455E+002   5.567717669678E+002   5.559211059570E+002   5.549571166992E+002   5.538613977051E+002   5.528627752686E+002   5.520149957275E+002   5.510928057861E+002   5.497684674072E+002   5.487388159180E+002 
        5.478580657959E+002   5.470866851807E+002   5.462744274902E+002   5.454330291748E+002   5.445240148926E+002   5.437355334473E+002   5.431238665771E+002   5.426785479736E+002   5.422613574219E+002   5.417577172852E+002 
        5.411618389893E+002   5.405772863770E+002   5.400940869141E+002   5.397375878906E+002   5.395238940430E+002   5.393908074951E+002   5.391415002441E+002   5.383824176025E+002   5.379435766602E+002   5.377880145264E+002 
        5.377688427734E+002   5.379903332520E+002   5.387590148926E+002   5.398047558594E+002   5.406562670898E+002   5.409903582764E+002   5.410088952637E+002   5.412662835693E+002   5.417993048096E+002   5.423897082520E+002 
        5.428146185303E+002   5.431033227539E+002   5.436562390137E+002   5.446554156494E+002   5.459604962158E+002   5.471000177002E+002   5.476932653809E+002   5.476719659424E+002   5.469043554688E+002   5.458342742920E+002 
        5.447939562988E+002   5.441145617676E+002   5.429499926758E+002   5.418411767578E+002   5.407169940186E+002   5.398964245605E+002   5.398089367676E+002   5.408109741211E+002   5.412549188232E+002   5.409687054443E+002 
        5.405293652344E+002   5.415843139648E+002   5.439274249268E+002   5.461734417725E+002   5.475828625488E+002   5.482510559082E+002   5.477411053467E+002   5.471805377197E+002   5.460268841553E+002   5.447335565186E+002 
        5.440009667969E+002   5.436322839355E+002   5.432599871826E+002   5.425164147949E+002   5.416071179199E+002   5.408108966064E+002   5.411876367188E+002   5.418564477539E+002   5.421450146484E+002   5.420885235596E+002 
        5.419891064453E+002   5.426366668701E+002 
        5.666314495850E+002   5.673640771484E+002   5.680760565186E+002   5.687635260010E+002   5.693926568604E+002   5.699033966064E+002   5.703830273437E+002   5.709196081543E+002   5.713085607910E+002   5.715816845703E+002 
        5.717679290771E+002   5.718483764648E+002   5.718244165039E+002   5.716955487061E+002   5.715073083496E+002   5.711676495361E+002   5.708699481201E+002   5.706459741211E+002   5.704696765137E+002   5.703121990967E+002 
        5.699619671631E+002   5.698258880615E+002   5.697458972168E+002   5.694960992432E+002   5.691789770508E+002   5.690088964844E+002   5.688707373047E+002   5.685121960449E+002   5.680003839111E+002   5.677406530762E+002 
        5.676686578369E+002   5.675730267334E+002   5.673730590820E+002   5.671282171631E+002   5.667450366211E+002   5.663893756104E+002   5.652808404541E+002   5.643756542969E+002   5.647084771729E+002   5.647253485107E+002 
        5.646358471680E+002   5.643452642822E+002   5.638352990723E+002   5.631782281494E+002   5.626199792480E+002   5.621990844727E+002   5.611891247559E+002   5.601128582764E+002   5.594673858643E+002   5.588354492188E+002 
        5.581531060791E+002   5.573491778564E+002   5.564869793701E+002   5.554411761475E+002   5.543078887939E+002   5.531245764160E+002   5.523067669678E+002   5.515142858887E+002   5.503930474854E+002   5.491012854004E+002 
        5.482186059570E+002   5.474323468018E+002   5.465717987061E+002   5.456448437500E+002   5.447396343994E+002   5.440299066162E+002   5.435273461914E+002   5.431693963623E+002   5.428168273926E+002   5.423401269531E+002 
        5.417334930420E+002   5.410857049561E+002   5.404949041748E+002   5.400643756104E+002   5.397971044922E+002   5.396181054687E+002   5.394197674561E+002   5.385362768555E+002   5.380750506592E+002   5.379734167480E+002 
        5.380940869141E+002   5.382722143555E+002   5.386219494629E+002   5.398288079834E+002   5.410136456299E+002   5.414184460449E+002   5.417023950195E+002   5.421812164307E+002   5.428107757568E+002   5.433896032715E+002 
        5.436303045654E+002   5.437323065186E+002   5.441829730225E+002   5.451445166016E+002   5.464948272705E+002   5.477819586182E+002   5.483817376709E+002   5.481384881592E+002   5.473680096436E+002   5.464973162842E+002 
        5.454088983154E+002   5.442656347656E+002   5.432155957031E+002   5.421838757324E+002   5.411899865723E+002   5.408989263916E+002   5.411883843994E+002   5.418232049561E+002   5.420649438477E+002   5.421949975586E+002 
        5.421532238770E+002   5.435149731445E+002   5.457832476807E+002   5.471175177002E+002   5.485344158936E+002   5.491480535889E+002   5.489959356689E+002   5.480051599121E+002   5.462053961182E+002   5.445477056885E+002 
        5.438070654297E+002   5.431881268311E+002   5.425231860352E+002   5.413380224609E+002   5.401752954102E+002   5.396668151855E+002   5.398762750244E+002   5.403810278320E+002   5.410495251465E+002   5.418057757568E+002 
        5.424764538574E+002   5.432652764893E+002 
        5.662533184814E+002   5.668834869385E+002   5.675781072998E+002   5.682841052246E+002   5.688444073486E+002   5.694580572510E+002   5.698915887451E+002   5.704124676514E+002   5.708859381104E+002   5.712095483398E+002 
        5.714734942627E+002   5.715750683594E+002   5.715526177979E+002   5.714741467285E+002   5.713192492676E+002   5.711548162842E+002   5.710434265137E+002   5.708242437744E+002   5.707209979248E+002   5.705082171631E+002 
        5.702159167480E+002   5.701642370605E+002   5.701285858154E+002   5.698494097900E+002   5.695985205078E+002   5.694008886719E+002   5.693466571045E+002   5.692103460693E+002   5.689656256104E+002   5.687556268311E+002 
        5.686059356689E+002   5.683074072266E+002   5.678716693115E+002   5.673242974854E+002   5.667665887451E+002   5.662652587891E+002   5.651806872559E+002   5.646258294678E+002   5.652075573730E+002   5.653410882568E+002 
        5.652703759766E+002   5.648744769287E+002   5.642351074219E+002   5.635295367432E+002   5.628960992432E+002   5.624367065430E+002   5.620134149170E+002   5.606846984863E+002   5.599986987305E+002   5.593602819824E+002 
        5.587096166992E+002   5.578982067871E+002   5.569678076172E+002   5.558790270996E+002   5.547160473633E+002   5.535218957520E+002   5.525473089600E+002   5.519204479980E+002   5.509168658447E+002   5.494991094971E+002 
        5.485075073242E+002   5.475849536133E+002   5.466590747070E+002   5.457599829102E+002   5.449498364258E+002   5.443426074219E+002   5.439598956299E+002   5.436750982666E+002   5.433546563721E+002   5.429053588867E+002 
        5.423022467041E+002   5.416017962646E+002   5.409296057129E+002   5.404182806396E+002   5.399944079590E+002   5.396965765381E+002   5.395580267334E+002   5.388896429443E+002   5.384273455811E+002   5.382694384766E+002 
        5.380537963867E+002   5.380215350342E+002   5.385934643555E+002   5.399457153320E+002   5.409645928955E+002   5.415384771729E+002   5.419382672119E+002   5.425362756348E+002   5.431311920166E+002   5.437221594238E+002 
        5.440176947021E+002   5.441770642090E+002   5.446938446045E+002   5.456937542725E+002   5.470680053711E+002   5.484899353027E+002   5.491378594971E+002   5.486818157959E+002   5.479077679443E+002   5.470445666504E+002 
        5.459341137695E+002   5.446547033691E+002   5.437166058350E+002   5.433920642090E+002   5.430447943115E+002   5.428153271484E+002   5.429151239014E+002   5.432583752441E+002   5.433809790039E+002   5.435394549561E+002 
        5.437532757568E+002   5.453369738770E+002   5.463323358154E+002   5.475404553223E+002   5.491394842529E+002   5.497713244629E+002   5.494117370605E+002   5.482132043457E+002   5.466776251221E+002   5.452036956787E+002 
        5.444719549561E+002   5.435369879150E+002   5.423449566650E+002   5.406626165771E+002   5.391710180664E+002   5.388255371094E+002   5.386162487793E+002   5.387284478760E+002   5.392478265381E+002   5.401364849854E+002 
        5.411464117432E+002   5.421930377197E+002 
        5.656137384033E+002   5.663460577393E+002   5.670018450928E+002   5.677019177246E+002   5.682594580078E+002   5.687714367676E+002   5.692596594238E+002   5.697447576904E+002   5.703085980225E+002   5.707951055908E+002 
        5.710479644775E+002   5.711866888428E+002   5.712007952881E+002   5.711919390869E+002   5.710736169434E+002   5.710110467529E+002   5.709589373779E+002   5.708664367676E+002   5.706797467041E+002   5.704770684814E+002 
        5.703571899414E+002   5.703152777100E+002   5.703584069824E+002   5.701146569824E+002   5.698155468750E+002   5.696469873047E+002   5.697123767090E+002   5.697351074219E+002   5.697205169678E+002   5.696078826904E+002 
        5.694184979248E+002   5.689550476074E+002   5.682867547607E+002   5.674391790771E+002   5.667311791992E+002   5.660027410889E+002   5.650775189209E+002   5.649385772705E+002   5.655967395020E+002   5.657643377686E+002 
        5.657479968262E+002   5.653382073975E+002   5.646506945801E+002   5.639212261963E+002   5.632414587402E+002   5.627474841309E+002   5.624893554687E+002   5.614878735352E+002   5.605290667725E+002   5.598860980225E+002 
        5.592363696289E+002   5.583897448730E+002   5.573575762939E+002   5.562606793213E+002   5.550905474854E+002   5.539499163818E+002   5.529381060791E+002   5.522495770264E+002   5.513677075195E+002   5.498866754150E+002 
        5.487342871094E+002   5.477431701660E+002   5.467835583496E+002   5.458969458008E+002   5.452214862061E+002   5.447449249268E+002   5.444192462158E+002   5.441386859131E+002   5.438130444336E+002   5.433934387207E+002 
        5.428268835449E+002   5.421279736328E+002   5.413988867187E+002   5.406560137939E+002   5.400994458008E+002   5.397390264893E+002   5.395795947266E+002   5.391279455566E+002   5.384242468262E+002   5.381130554199E+002 
        5.380553454590E+002   5.381158740234E+002   5.387716668701E+002   5.399633947754E+002   5.409045391846E+002   5.416145574951E+002   5.420063165283E+002   5.423746044922E+002   5.426766156006E+002   5.431920257568E+002 
        5.440123968506E+002   5.445106176758E+002   5.451953076172E+002   5.461971240234E+002   5.475458331299E+002   5.490038787842E+002   5.495379675293E+002   5.488650170898E+002   5.479370269775E+002   5.467686578369E+002 
        5.455178277588E+002   5.450879846191E+002   5.454855255127E+002   5.457097576904E+002   5.455065856934E+002   5.450901831055E+002   5.449648217773E+002   5.451653662109E+002   5.453037847900E+002   5.451836578369E+002 
        5.450389160156E+002   5.453267468262E+002   5.456612878418E+002   5.471072082520E+002   5.480124725342E+002   5.482819165039E+002   5.480480181885E+002   5.471846899414E+002   5.457536761475E+002   5.440508551025E+002 
        5.429965673828E+002   5.420072845459E+002   5.405375250244E+002   5.388042071533E+002   5.379533465576E+002   5.377735650635E+002   5.374506890869E+002   5.374866430664E+002   5.377452093506E+002   5.383468347168E+002 
        5.390494659424E+002   5.400596453857E+002 
        5.650180987549E+002   5.657777178955E+002   5.663496276855E+002   5.669235040283E+002   5.675073577881E+002   5.680447772217E+002   5.685229071045E+002   5.689133782959E+002   5.694683959961E+002   5.700434350586E+002 
        5.704275573730E+002   5.706462988281E+002   5.707863470459E+002   5.709143328857E+002   5.709737481689E+002   5.709368304443E+002   5.709032788086E+002   5.708138287354E+002   5.706949066162E+002   5.705294274902E+002 
        5.704101184082E+002   5.703799658203E+002   5.703883264160E+002   5.700426464844E+002   5.699678985596E+002   5.698464080811E+002   5.699276770020E+002   5.700659387207E+002   5.702091351318E+002   5.701810467529E+002 
        5.700179180908E+002   5.695187683105E+002   5.686790161133E+002   5.676248687744E+002   5.668273284912E+002   5.659007281494E+002   5.651306237793E+002   5.652373669434E+002   5.659138897705E+002   5.661197595215E+002 
        5.661477655029E+002   5.657809277344E+002   5.650756066895E+002   5.643231988525E+002   5.636324670410E+002   5.630762652588E+002   5.627440014648E+002   5.623508062744E+002   5.610775769043E+002   5.604422088623E+002 
        5.596843853760E+002   5.587882568359E+002   5.576999145508E+002   5.566123767090E+002   5.554907269287E+002   5.543652044678E+002   5.533109771729E+002   5.525113946533E+002   5.518284747314E+002   5.503865631104E+002 
        5.489732049561E+002   5.479288983154E+002   5.470136059570E+002   5.462150939941E+002   5.455796075439E+002   5.451533770752E+002   5.448394342041E+002   5.445455084229E+002   5.442450555420E+002   5.438695245361E+002 
        5.435407061768E+002   5.429783868408E+002   5.419806237793E+002   5.409632580566E+002   5.402332574463E+002   5.397999273682E+002   5.396533447266E+002   5.393627111816E+002   5.385529663086E+002   5.384253759766E+002 
        5.382231146240E+002   5.382495275879E+002   5.389825836182E+002   5.399120086670E+002   5.408689959717E+002   5.416720648193E+002   5.420563079834E+002   5.421947833252E+002   5.423972778320E+002   5.428759002686E+002 
        5.439416076660E+002   5.448208178711E+002   5.456458361816E+002   5.467245349121E+002   5.480412561035E+002   5.492510253906E+002   5.494687652588E+002   5.488835809326E+002   5.472447430420E+002   5.454962646484E+002 
        5.457739556885E+002   5.466053955078E+002   5.473434271240E+002   5.475901776123E+002   5.473746124268E+002   5.471606768799E+002   5.469281481934E+002   5.468428759766E+002   5.467154040527E+002   5.461292370605E+002 