BEGIN OPTIONS
  PRINT_INPUT
END OPTIONS

BEGIN TIMING
  TDIS6 'model_2_Riv_3.tdis'
END TIMING

BEGIN MODELS
  GWF6 'model_2_Riv_3.nam' 'MODFLOW'
END MODELS

BEGIN EXCHANGES
END EXCHANGES

BEGIN SOLUTIONGROUP     1
  MXITER     1
  IMS6 'model_2_Riv_3.ims' 'MODFLOW' 
END SOLUTIONGROUP

