# Discretization File created on 3/23/2025 by ModelMuse version 5.3.1.0.
# Upper left corner: (725210.607578169, 5333108.71549924)
# Lower left corner: (725210.607578169, 5330508.71549924)
# Upper right corner: (729010.60757817, 5333108.71549924)
# Lower right corner: (729010.60757817, 5330508.71549924)
# Grid angle (in degrees counterclockwise): 0
# Number of active cells = 10233.
BEGIN OPTIONS
  LENGTH_UNITS METERS
  XORIGIN  7.252106075782E+005 
  YORIGIN  5.330508715499E+006 
  ANGROT  0.000000000000E+000 
END OPTIONS

BEGIN DIMENSIONS
  NLAY      1
  NROW     80
  NCOL    128
END DIMENSIONS


BEGIN GRIDDATA
  DELR LAYERED
    INTERNAL IPRN     12 # DELR
        1.000000000000E+002   1.000000000000E+002   1.000000000001E+002   9.999999999988E+001   1.000000000000E+002   1.000000000001E+002   1.000000000000E+002   9.999999999988E+001   1.000000000000E+002   1.000000000000E+002 
        1.000000000000E+002   1.000000000000E+002   1.000000000012E+001   9.999999999884E+000   1.000000000035E+001   9.999999999767E+000   1.000000000000E+001   1.000000000000E+001   1.000000000000E+001   9.999999999884E+000 
        1.000000000000E+001   1.000000000000E+001   9.999999999884E+000   1.000000000012E+001   1.000000000012E+001   1.000000000000E+001   1.000000000000E+001   9.999999999884E+000   1.000000000012E+001   9.999999999884E+000 
        1.000000000012E+001   1.000000000000E+001   1.000000000000E+001   9.999999999884E+000   1.000000000012E+001   9.999999999884E+000   1.000000000012E+001   9.999999999884E+000   1.000000000000E+001   1.000000000000E+001 
        1.000000000012E+001   1.000000000000E+001   1.000000000000E+001   9.999999999884E+000   1.000000000012E+001   9.999999999884E+000   1.000000000012E+001   9.999999999884E+000   1.000000000012E+001   1.000000000000E+001 
        1.000000000000E+001   9.999999999884E+000   1.000000000000E+001   1.000000000000E+001   1.000000000012E+001   9.999999999884E+000   1.000000000012E+001   1.000000000000E+001   1.000000000000E+001   9.999999999884E+000 
        1.000000000000E+001   1.000000000000E+001   1.000000000012E+001   1.000000000000E+001   1.000000000000E+001   9.999999999884E+000   1.000000000012E+001   1.000000000000E+001   1.000000000000E+001   9.999999999884E+000 
        1.000000000000E+001   1.000000000000E+001   1.000000000012E+001   9.999999999884E+000   1.000000000012E+001   9.999999999884E+000   1.000000000012E+001   9.999999999884E+000   1.000000000035E+001   9.999999999767E+000 
        1.000000000000E+001   1.000000000000E+001   1.000000000000E+001   9.999999999884E+000   1.000000000000E+001   1.000000000000E+001   9.999999999884E+000   1.000000000012E+001   1.000000000012E+001   1.000000000000E+001 
        1.000000000000E+001   9.999999999884E+000   1.000000000012E+001   9.999999999884E+000   1.000000000012E+001   1.000000000000E+001   1.000000000000E+001   9.999999999884E+000   1.000000000012E+001   9.999999999884E+000 
        1.000000000012E+001   9.999999999884E+000   1.000000000000E+001   1.000000000000E+001   1.000000000012E+001   1.000000000000E+001   1.000000000000E+001   9.999999999884E+000   1.000000000012E+001   9.999999999884E+000 
        1.000000000012E+001   9.999999999884E+000   1.000000000001E+002   1.000000000000E+002   9.999999999988E+001   1.000000000000E+002   1.000000000000E+002   1.000000000000E+002   1.000000000000E+002   1.000000000001E+002 
        9.999999999988E+001   1.000000000000E+002   1.000000000000E+002   1.000000000000E+002   1.000000000001E+002   9.999999999988E+001   1.000000000000E+002   1.000000000001E+002 
  DELC LAYERED
    INTERNAL IPRN     12 # DELC
        1.000000000000E+002   9.999999999907E+001   1.000000000009E+002   9.999999999907E+001   1.000000000000E+002   1.000000000009E+002   1.000000000000E+002   9.999999999907E+001   1.000000000000E+002   1.000000000000E+002 
        1.000000000093E+001   9.999999999069E+000   1.000000000000E+001   1.000000000000E+001   1.000000000000E+001   1.000000000186E+001   9.999999998137E+000   1.000000000093E+001   1.000000000000E+001   1.000000000000E+001 
        9.999999999069E+000   1.000000000093E+001   9.999999999069E+000   1.000000000093E+001   9.999999999069E+000   1.000000000093E+001   9.999999999069E+000   1.000000000000E+001   1.000000000000E+001   1.000000000000E+001 
        1.000000000093E+001   1.000000000000E+001   9.999999998137E+000   1.000000000186E+001   1.000000000000E+001   1.000000000000E+001   9.999999996275E+000   1.000000000373E+001   1.000000000000E+001   1.000000000000E+001 
        9.999999999069E+000   1.000000000000E+001   1.000000000093E+001   1.000000000000E+001   1.000000000000E+001   9.999999999069E+000   1.000000000093E+001   1.000000000000E+001   9.999999999069E+000   1.000000000093E+001 
        1.000000000000E+001   1.000000000000E+001   1.000000000000E+001   9.999999999069E+000   1.000000000000E+001   1.000000000000E+001   1.000000000093E+001   1.000000000000E+001   9.999999999069E+000   1.000000000000E+001 
        1.000000000000E+001   1.000000000000E+001   1.000000000093E+001   9.999999999069E+000   1.000000000000E+001   1.000000000093E+001   9.999999999069E+000   1.000000000000E+001   1.000000000000E+001   1.000000000000E+001 
        1.000000000000E+002   1.000000000000E+002   1.000000000009E+002   1.000000000000E+002   9.999999999907E+001   1.000000000009E+002   9.999999999907E+001   1.000000000009E+002   9.999999999907E+001   1.000000000009E+002 
  TOP LAYERED
    INTERNAL IPRN     12 # TOP
        5.548801361694E+002   5.586490048767E+002   5.561160399231E+002   5.487570012329E+002   5.440178329834E+002   5.408512951904E+002   5.403130524780E+002   5.487510134460E+002   5.476845773987E+002   5.364295015320E+002 
        5.326645377441E+002   5.317414632446E+002   5.313622685547E+002   5.315367706299E+002   5.319551381836E+002   5.323758532715E+002   5.327693524780E+002   5.330657672729E+002   5.332322053223E+002   5.333787914429E+002 
        5.334468460083E+002   5.333361867676E+002   5.331627982788E+002   5.330579694824E+002   5.329414436646E+002   5.327681891479E+002   5.325474696045E+002   5.322910100708E+002   5.319971978760E+002   5.316432732544E+002 
        5.313595144043E+002   5.312664439087E+002   5.312213214722E+002   5.312145776978E+002   5.312153110352E+002   5.311554261475E+002   5.311371409912E+002   5.309905535889E+002   5.309127994995E+002   5.309899512329E+002 
        5.311811750488E+002   5.314105731201E+002   5.315846689453E+002   5.318638773804E+002   5.321386251831E+002   5.324472764282E+002   5.327708041382E+002   5.331092429810E+002   5.334638907471E+002   5.338250662231E+002 
        5.342344511719E+002   5.347051063232E+002   5.352115882568E+002   5.357695625610E+002   5.364578051758E+002   5.372793907471E+002   5.382086262207E+002   5.392470894775E+002   5.403706362305E+002   5.415358405762E+002 
        5.427297095947E+002   5.439357714844E+002   5.451199651489E+002   5.462756231079E+002   5.474015883789E+002   5.485267539062E+002   5.496401223145E+002   5.507516492310E+002   5.517509525757E+002   5.525068590088E+002 
        5.529940759888E+002   5.532822332153E+002   5.534424965820E+002   5.535279451294E+002   5.535681058960E+002   5.535913463745E+002   5.536476960449E+002   5.537636404419E+002   5.539039689331E+002   5.540380891724E+002 
        5.541541595459E+002   5.542328320313E+002   5.542606749268E+002   5.543566458740E+002   5.546091691895E+002   5.547809298096E+002   5.549116849365E+002   5.551074248657E+002   5.552437871094E+002   5.554076310425E+002 
        5.555988952026E+002   5.558176115723E+002   5.559454517822E+002   5.558802993774E+002   5.557448156128E+002   5.556964366455E+002   5.557703273926E+002   5.558808532104E+002   5.560585214233E+002   5.563114993286E+002 
        5.566554282227E+002   5.570835747681E+002   5.576116376343E+002   5.581967095947E+002   5.588490487671E+002   5.595348793335E+002   5.600901178589E+002   5.604496748047E+002   5.606846483154E+002   5.609005045166E+002 
        5.612492072144E+002   5.615827863159E+002   5.625686485535E+002   5.620841915344E+002   5.619635267761E+002   5.607400085571E+002   5.605328796570E+002   5.599752004578E+002   5.581743657349E+002   5.591068755432E+002 
        5.579543208496E+002   5.569175868652E+002   5.580265150024E+002   5.558915115906E+002   5.548310035034E+002   5.547765036987E+002   5.523943931152E+002   4.906509461365E+002 
        5.509145294922E+002   5.567807059692E+002   5.598838297546E+002   5.524125679810E+002   5.460160355835E+002   5.424370866638E+002   5.382115747803E+002   5.391699885620E+002   5.401833318359E+002   5.333798175415E+002 
        5.319691613892E+002   5.313348713928E+002   5.311735687866E+002   5.311954734497E+002   5.313215159302E+002   5.315860527344E+002   5.319740326538E+002   5.324897971802E+002   5.330508154297E+002   5.335468997803E+002 
        5.340639398804E+002   5.347059354248E+002   5.354202252197E+002   5.361328562622E+002   5.367970361328E+002   5.373430479126E+002   5.376036865234E+002   5.373371481934E+002   5.364975579834E+002   5.354328258667E+002 
        5.344889213257E+002   5.337026576538E+002   5.330365015869E+002   5.325151359863E+002   5.323897750854E+002   5.324517872925E+002   5.321041318970E+002   5.324845864258E+002   5.337088958130E+002   5.348745402832E+002 
        5.359075204468E+002   5.367687321167E+002   5.376734231567E+002   5.389066737671E+002   5.403401436157E+002   5.411160886230E+002   5.418689653931E+002   5.424230878906E+002   5.427756983643E+002   5.431875704346E+002 
        5.435212971191E+002   5.438420719604E+002   5.441466436768E+002   5.448222761230E+002   5.453274163208E+002   5.456635529785E+002   5.460834687500E+002   5.465069584351E+002   5.469816212158E+002   5.474645703125E+002 
        5.479800053101E+002   5.485614729614E+002   5.491900695801E+002   5.498148311157E+002   5.504193440552E+002   5.509213051147E+002   5.513328780518E+002   5.516792050781E+002   5.520026013184E+002   5.523097757568E+002 
        5.525630233154E+002   5.527891418457E+002   5.529629698486E+002   5.530245308838E+002   5.529528153076E+002   5.526531143188E+002   5.521464531250E+002   5.516583084106E+002   5.512824940796E+002   5.510006661377E+002 
        5.506786568604E+002   5.503499951782E+002   5.501377662354E+002   5.500736168213E+002   5.502318256836E+002   5.505948146973E+002   5.510470267334E+002   5.515037224121E+002   5.519739674683E+002   5.524348358765E+002 
        5.529225921631E+002   5.534073673096E+002   5.538082818604E+002   5.541347588501E+002   5.543854223022E+002   5.545989332275E+002   5.548167030640E+002   5.550759973755E+002   5.553584432983E+002   5.556479675903E+002 
        5.559833945923E+002   5.563651859131E+002   5.567828838501E+002   5.572153084106E+002   5.576776843872E+002   5.581302270508E+002   5.585588158569E+002   5.589678938599E+002   5.593406992188E+002   5.596840250244E+002 
        5.599386590576E+002   5.601352742310E+002   5.608275569092E+002   5.605639819031E+002   5.599694809021E+002   5.582106149353E+002   5.579052653076E+002   5.555280718689E+002   5.562141054993E+002   5.581880090088E+002 
        5.573706891235E+002   5.578583286194E+002   5.586325904419E+002   5.552766787170E+002   5.541289214844E+002   5.525179023193E+002   5.521623607666E+002   5.447924135498E+002 
        5.475556067383E+002   5.501485758850E+002   5.599635704895E+002   5.572690322388E+002   5.512219272095E+002   5.464068470642E+002   5.425040449097E+002   5.372633177307E+002   5.338684557861E+002   5.324564404297E+002 
        5.316003982117E+002   5.315109237122E+002   5.314742679443E+002   5.315366565552E+002   5.316038722534E+002   5.317300374146E+002   5.320087132568E+002   5.323433629150E+002   5.327263521729E+002   5.331191625977E+002 
        5.335257640381E+002   5.339328529053E+002   5.342892073364E+002   5.346944803467E+002   5.350751007080E+002   5.355009815674E+002   5.360119038696E+002   5.365711473999E+002   5.371358153687E+002   5.376783463745E+002 
        5.380036616821E+002   5.380892338867E+002   5.380572160034E+002   5.379152065430E+002   5.372896266479E+002   5.363008541260E+002   5.355124300537E+002   5.351081111450E+002   5.349424093018E+002   5.345747712402E+002 
        5.344229505005E+002   5.346231945801E+002   5.355081561279E+002   5.368652180786E+002   5.388622294312E+002   5.412956590576E+002   5.429711858521E+002   5.437596549683E+002   5.439825696411E+002   5.439813303223E+002 
        5.438226999512E+002   5.436232683105E+002   5.434267212524E+002   5.435699483643E+002   5.439812187500E+002   5.444079763794E+002   5.447262225952E+002   5.449256576538E+002   5.452126560669E+002   5.455011275024E+002 
        5.456871407471E+002   5.459528259277E+002   5.462355372314E+002   5.465643760376E+002   5.469073702393E+002   5.472586692505E+002   5.475274096680E+002   5.476986802979E+002   5.477813570557E+002   5.478721829834E+002 
        5.480587723389E+002   5.483824251099E+002   5.488240859375E+002   5.493115393066E+002   5.497557247314E+002   5.501262411499E+002   5.504514105835E+002   5.507333249512E+002   5.509390360107E+002   5.510704283447E+002 
        5.511247103882E+002   5.510605440674E+002   5.508907533569E+002   5.505530059814E+002   5.500762962036E+002   5.495136935425E+002   5.489132155762E+002   5.483442745361E+002   5.477909024658E+002   5.472502116699E+002 
        5.467292700806E+002   5.463289408569E+002   5.461110070801E+002   5.460416118774E+002   5.460654104004E+002   5.461831268921E+002   5.463412151489E+002   5.466259439697E+002   5.469857326050E+002   5.473585246582E+002 
        5.477089063721E+002   5.480815416260E+002   5.484759749756E+002   5.488612440796E+002   5.492371257935E+002   5.496318967896E+002   5.500456726685E+002   5.504879019775E+002   5.509128918457E+002   5.513761322021E+002 
        5.518746525879E+002   5.523097088623E+002   5.541976304749E+002   5.564524184753E+002   5.569439184998E+002   5.557741900635E+002   5.546196527832E+002   5.538900669922E+002   5.542808791687E+002   5.553035158569E+002 
        5.583984371460E+002   5.608031665100E+002   5.593221892944E+002   5.551749159546E+002   5.543531294128E+002   5.515395539368E+002   5.509068339783E+002   5.494660115601E+002 
        5.394681117920E+002   5.459471640930E+002   5.543648995483E+002   5.577279563660E+002   5.561559570435E+002   5.506673158142E+002   5.402847697083E+002   5.328898154968E+002   5.320276661499E+002   5.318556827454E+002 
        5.319406823975E+002   5.324748699585E+002   5.330507227173E+002   5.332927474976E+002   5.333807149048E+002   5.336909932861E+002   5.341153137207E+002   5.345865607300E+002   5.351524558716E+002   5.357464594116E+002 
        5.363690135498E+002   5.370503561401E+002   5.379028249512E+002   5.397813211060E+002   5.442631561890E+002   5.462937852783E+002   5.441684832153E+002   5.440842610474E+002   5.440710292358E+002   5.439337737427E+002 
        5.437115540161E+002   5.435933175659E+002   5.435025468750E+002   5.435460092773E+002   5.439282682495E+002   5.440460737915E+002   5.439836170654E+002   5.434998230591E+002   5.429045781250E+002   5.423687733765E+002 
        5.424875003052E+002   5.423299960938E+002   5.409803970337E+002   5.397995496826E+002   5.386618316040E+002   5.377754347534E+002   5.371936392822E+002   5.367953740234E+002   5.365238078613E+002   5.362536234741E+002 
        5.360452890625E+002   5.359401202393E+002   5.359612587280E+002   5.360800684204E+002   5.362198646851E+002   5.363578994751E+002   5.366201064453E+002   5.369154582520E+002   5.370198709717E+002   5.371187775879E+002 
        5.372090957642E+002   5.373329437256E+002   5.373963804321E+002   5.374521701660E+002   5.376676888428E+002   5.379732870483E+002   5.383699709473E+002   5.387038148193E+002   5.390486021729E+002   5.394318026733E+002 
        5.397855891724E+002   5.401490916138E+002   5.406391976929E+002   5.411895596924E+002   5.417818308105E+002   5.423652753906E+002   5.428366013184E+002   5.432465631714E+002   5.435948319702E+002   5.439044020996E+002 
        5.442583713379E+002   5.446202050781E+002   5.449996712036E+002   5.453264514771E+002   5.454979511108E+002   5.455275684204E+002   5.455264003296E+002   5.454752376099E+002   5.453673587036E+002   5.452419060059E+002 
        5.450969904785E+002   5.449135391846E+002   5.446972266846E+002   5.445291242676E+002   5.444090240479E+002   5.442968009033E+002   5.441199622192E+002   5.439300794678E+002   5.437950985718E+002   5.437246690063E+002 
        5.436663135986E+002   5.436707783813E+002   5.437706619263E+002   5.439145579224E+002   5.439413908691E+002   5.442935541992E+002   5.444175642700E+002   5.446503318481E+002   5.449031647339E+002   5.452576746826E+002 
        5.456159675903E+002   5.459427650757E+002   5.483488145020E+002   5.523741737183E+002   5.535745496826E+002   5.538467050171E+002   5.535624315796E+002   5.530844006531E+002   5.512711937866E+002   5.515024208435E+002 
        5.535617230652E+002   5.567085321838E+002   5.539897897278E+002   5.511654827820E+002   5.487884483887E+002   5.481584724365E+002   5.497562138977E+002   5.499762708435E+002 
        5.334629105469E+002   5.357237336548E+002   5.428387982422E+002   5.501480704468E+002   5.516703317078E+002   5.447060971436E+002   5.327700488159E+002   5.316993273376E+002   5.326519124878E+002   5.327808785034E+002 
        5.335686566223E+002   5.363104733032E+002   5.381003497314E+002   5.385916598511E+002   5.391339254761E+002   5.396494361572E+002   5.401382141724E+002   5.406971934814E+002   5.414263426514E+002   5.422882139282E+002 
        5.431733269043E+002   5.441157466431E+002   5.451559153442E+002   5.463669431763E+002   5.479490327759E+002   5.503055974121E+002   5.537036353760E+002   5.526736851196E+002   5.519722955933E+002   5.520698718872E+002 
        5.521688920288E+002   5.522692738647E+002   5.523468859253E+002   5.523840009155E+002   5.524849223633E+002   5.532172252808E+002   5.533218966064E+002   5.528477293091E+002   5.515605621338E+002   5.499886589966E+002 
        5.496651134644E+002   5.493451060181E+002   5.491357380371E+002   5.489948786621E+002   5.489071896973E+002   5.491023013306E+002   5.481442056885E+002   5.465601928101E+002   5.444384756470E+002   5.427690175781E+002 
        5.422182548828E+002   5.419203939819E+002   5.416808579712E+002   5.414164295044E+002   5.411004915771E+002   5.408882454834E+002   5.407459523926E+002   5.404180762939E+002   5.401757105103E+002   5.398453538208E+002 
        5.385135524902E+002   5.381346500854E+002   5.380215676270E+002   5.378149284668E+002   5.375394227905E+002   5.372014260864E+002   5.370986063843E+002   5.371186386108E+002   5.371349077759E+002   5.371326972656E+002 
        5.370779259033E+002   5.370452008057E+002   5.370826268921E+002   5.371094904175E+002   5.372048085938E+002   5.373351527710E+002   5.374917030640E+002   5.375890478516E+002   5.378139579468E+002   5.379478447876E+002 
        5.380149201660E+002   5.379844306641E+002   5.379552202759E+002   5.380479401855E+002   5.381894902344E+002   5.384181292725E+002   5.387112559204E+002   5.390917249756E+002   5.395121636963E+002   5.399483987427E+002 
        5.403462067871E+002   5.407023032227E+002   5.410887324829E+002   5.414613866577E+002   5.418353774414E+002   5.421458798218E+002   5.424113517456E+002   5.426604158936E+002   5.429236983032E+002   5.431760743408E+002 
        5.433791427002E+002   5.435530781860E+002   5.437026819458E+002   5.437790682983E+002   5.438281747437E+002   5.438115230103E+002   5.437057115479E+002   5.435111549683E+002   5.433013945923E+002   5.430935163574E+002 
        5.429319173584E+002   5.428592437744E+002   5.445211808411E+002   5.476626515442E+002   5.490296214233E+002   5.490550857239E+002   5.484485341919E+002   5.499560838562E+002   5.493061390564E+002   5.479933685059E+002 
        5.479671339478E+002   5.492810957031E+002   5.483308783630E+002   5.477843367859E+002   5.471235140442E+002   5.479386709290E+002   5.503923236206E+002   5.526558784302E+002 
        5.288042466736E+002   5.278977016296E+002   5.297315698608E+002   5.340503302673E+002   5.348901918091E+002   5.318949336670E+002   5.298229744812E+002   5.328319582092E+002   5.338223312927E+002   5.353038011780E+002 
        5.394887432312E+002   5.448858253113E+002   5.470301768188E+002   5.477579954834E+002   5.485450189209E+002   5.493479622803E+002   5.501466494751E+002   5.508746158447E+002   5.515730656128E+002   5.522517808228E+002 
        5.528544417114E+002   5.533180838013E+002   5.536502452393E+002   5.539619168701E+002   5.544792142334E+002   5.550785726318E+002   5.568271733398E+002   5.569610220337E+002   5.561441923828E+002   5.554637677002E+002 
        5.547791177368E+002   5.544042732544E+002   5.543956054077E+002   5.543853945923E+002   5.543777691040E+002   5.543827706909E+002   5.543673462524E+002   5.547342136230E+002   5.556263598022E+002   5.553769375610E+002 
        5.543337794189E+002   5.528208890991E+002   5.512170632324E+002   5.507342778320E+002   5.506315101318E+002   5.505674082031E+002   5.504561160278E+002   5.503253320312E+002   5.505902753906E+002   5.504407807007E+002 
        5.491370220947E+002   5.474044784546E+002   5.456069942627E+002   5.442828343506E+002   5.438452971191E+002   5.438174975586E+002   5.437902260742E+002   5.436946142578E+002   5.435841446533E+002   5.437055997314E+002 
        5.439737721558E+002   5.432570546875E+002   5.422498178711E+002   5.409274320068E+002   5.406929237061E+002   5.402483200684E+002   5.393763292847E+002   5.390937557373E+002   5.389955565186E+002   5.388414248047E+002 
        5.387557253418E+002   5.390883378296E+002   5.382139419556E+002   5.382193470459E+002   5.382745676880E+002   5.382202159424E+002   5.380297155762E+002   5.379333084717E+002   5.377978007812E+002   5.376856826172E+002 
        5.374556867676E+002   5.373384747925E+002   5.371060104980E+002   5.370334274292E+002   5.370525083008E+002   5.371663452148E+002   5.372250086670E+002   5.372366758423E+002   5.372140693359E+002   5.372175393066E+002 
        5.374022783203E+002   5.375637706909E+002   5.377596968384E+002   5.377522898560E+002   5.379326050415E+002   5.381604376831E+002   5.384031255493E+002   5.385927385864E+002   5.387514170532E+002   5.388920833740E+002 
        5.390439133301E+002   5.392325708618E+002   5.394383988647E+002   5.396830239258E+002   5.399172890015E+002   5.401289863892E+002   5.403462778320E+002   5.405147836914E+002   5.405562457886E+002   5.405198273926E+002 
        5.404208723145E+002   5.404237170410E+002   5.412104780945E+002   5.431341786987E+002   5.439264886597E+002   5.442220299377E+002   5.449902202209E+002   5.467088284363E+002   5.469367606079E+002   5.460672073914E+002 
        5.457515798828E+002   5.462285965271E+002   5.466214457336E+002   5.468903086853E+002   5.474327907654E+002   5.488115405640E+002   5.531204810852E+002   5.551381185120E+002 
        5.282552473389E+002   5.272907605957E+002   5.248595423279E+002   5.261552437805E+002   5.295754155457E+002   5.284109566345E+002   5.307483680115E+002   5.339110490540E+002   5.389135185547E+002   5.446594739685E+002 
        5.529094442627E+002   5.581985226624E+002   5.567488897095E+002   5.563338820801E+002   5.561254528198E+002   5.567721173096E+002   5.574057449951E+002   5.578971107788E+002   5.583534412842E+002   5.588560419312E+002 
        5.593861633301E+002   5.597831663208E+002   5.599520771484E+002   5.599936405640E+002   5.600340924683E+002   5.600584743042E+002   5.600617557983E+002   5.601423889160E+002   5.602748305664E+002   5.603266916504E+002 
        5.602930991821E+002   5.602886431885E+002   5.603714298706E+002   5.604986105347E+002   5.605340838013E+002   5.602889906616E+002   5.598898014526E+002   5.594364241943E+002   5.588160842285E+002   5.580068186035E+002 
        5.572028652344E+002   5.566151448364E+002   5.560048114624E+002   5.553228832397E+002   5.547680650635E+002   5.541993258057E+002   5.533962828979E+002   5.525849122925E+002   5.518333533936E+002   5.511444617310E+002 
        5.504977288208E+002   5.498775302734E+002   5.492437337646E+002   5.485379564209E+002   5.477814790649E+002   5.470794384155E+002   5.464118211670E+002   5.457426741333E+002   5.450938568115E+002   5.444724187012E+002 
        5.438539392700E+002   5.432798237915E+002   5.427530031128E+002   5.423014132690E+002   5.418166211548E+002   5.412681936035E+002   5.407121638184E+002   5.401968297729E+002   5.397809370117E+002   5.394981122437E+002 
        5.392557108765E+002   5.390367476807E+002   5.389055869141E+002   5.388245936279E+002   5.387133363037E+002   5.385594028931E+002   5.383745625000E+002   5.382975732422E+002   5.381880105591E+002   5.381236126709E+002 
        5.381319490967E+002   5.380276592407E+002   5.378946022949E+002   5.377477115479E+002   5.375229424438E+002   5.373688829956E+002   5.373299979248E+002   5.373664729614E+002   5.374237720947E+002   5.373951152344E+002 
        5.373986243286E+002   5.374404359741E+002   5.374537840576E+002   5.374745587158E+002   5.375040559082E+002   5.375661441040E+002   5.375997465820E+002   5.376343005371E+002   5.377651045532E+002   5.380377518311E+002 
        5.382420469971E+002   5.382562051392E+002   5.383078225708E+002   5.384126807861E+002   5.386436237183E+002   5.387842352295E+002   5.389633065186E+002   5.391547081299E+002   5.393611922607E+002   5.395277204590E+002 
        5.397179660645E+002   5.399287791138E+002   5.411404575684E+002   5.435872955261E+002   5.442184808838E+002   5.435678959900E+002   5.439270676147E+002   5.464560484314E+002   5.469697847900E+002   5.462829164429E+002 
        5.468409143372E+002   5.477598650330E+002   5.488253217346E+002   5.486687864990E+002   5.490384839600E+002   5.507636570007E+002   5.550570188110E+002   5.572602326660E+002 
        5.272143780945E+002   5.271105385681E+002   5.239923679810E+002   5.231155182007E+002   5.276432588196E+002   5.264648447693E+002   5.296749567932E+002   5.344647777649E+002   5.427240999756E+002   5.562298903931E+002 
        5.647220762573E+002   5.640975078064E+002   5.628021766357E+002   5.626819564819E+002   5.626343110352E+002   5.627187165527E+002   5.628640208130E+002   5.630137282104E+002   5.631953924561E+002   5.632726373291E+002 
        5.634866322632E+002   5.637632235718E+002   5.639265117187E+002   5.639659409790E+002   5.639432219238E+002   5.638589363403E+002   5.637603820190E+002   5.637419161377E+002   5.637491290894E+002   5.636919721069E+002 
        5.634975520020E+002   5.631535222168E+002   5.628184395142E+002   5.624192393188E+002   5.619789136963E+002   5.615773889771E+002   5.611626187744E+002   5.607143990479E+002   5.601541598511E+002   5.597781261597E+002 
        5.595542262573E+002   5.594139313354E+002   5.593301467285E+002   5.589543917847E+002   5.584123212891E+002   5.578299813843E+002   5.572538630981E+002   5.565941868896E+002   5.557872141724E+002   5.549091557617E+002 
        5.539966264038E+002   5.531292330933E+002   5.523022994995E+002   5.515908210449E+002   5.509362741699E+002   5.502860787354E+002   5.496368432617E+002   5.489489786987E+002   5.482690283813E+002   5.476005412598E+002 
        5.469971657104E+002   5.464054096680E+002   5.457734204712E+002   5.449724398804E+002   5.441154432983E+002   5.431488610229E+002   5.422894658813E+002   5.416447593384E+002   5.411955481567E+002   5.408344039917E+002 
        5.406168127441E+002   5.404490772705E+002   5.402869913330E+002   5.401412229004E+002   5.400734284058E+002   5.400268074341E+002   5.400012813721E+002   5.400031986694E+002   5.400563059082E+002   5.400969497681E+002 
        5.401202296143E+002   5.401196234131E+002   5.401047769775E+002   5.400785274658E+002   5.399769263916E+002   5.397605023804E+002   5.393879644775E+002   5.390015650024E+002   5.387699389648E+002   5.386678991089E+002 
        5.388526583252E+002   5.391837192993E+002   5.393312891846E+002   5.393742785645E+002   5.392731008911E+002   5.389690424194E+002   5.385260513916E+002   5.380660061646E+002   5.376759852905E+002   5.375696367798E+002 
        5.378453024292E+002   5.381991110229E+002   5.383700022583E+002   5.381259046631E+002   5.380149847412E+002   5.382084710693E+002   5.385605961914E+002   5.392938417969E+002   5.405419436035E+002   5.419687052002E+002 
        5.432165060425E+002   5.441154321899E+002   5.466290056824E+002   5.519439754700E+002   5.534631128113E+002   5.511469795044E+002   5.448709577576E+002   5.465192669739E+002   5.479879273743E+002   5.493195191162E+002 
        5.505614668518E+002   5.506782606995E+002   5.511209088928E+002   5.517948245911E+002   5.513460507568E+002   5.529495111633E+002   5.561335217102E+002   5.575968951050E+002 
        5.225427770691E+002   5.223501240967E+002   5.201212630676E+002   5.212848398376E+002   5.251148067566E+002   5.225039947510E+002   5.283618647156E+002   5.342805152588E+002   5.385221427612E+002   5.518264260925E+002 
        5.645375602722E+002   5.702932763000E+002   5.713770039062E+002   5.713185690308E+002   5.712425643921E+002   5.710978602295E+002   5.708425903320E+002   5.704923471069E+002   5.701146308594E+002   5.698383068848E+002 
        5.695551821289E+002   5.692160836792E+002   5.689069664307E+002   5.686721307983E+002   5.684863820801E+002   5.685421578369E+002   5.686763181152E+002   5.686269463501E+002   5.683212173462E+002   5.676454976196E+002 
        5.668091217651E+002   5.662374707642E+002   5.659321884155E+002   5.659778303833E+002   5.660152167969E+002   5.658054252930E+002   5.653104452515E+002   5.647613167725E+002   5.641799019165E+002   5.635290827026E+002 