# Initial Conditions Package file created on 2/25/2025 by ModelMuse version 5.3.1.0.
BEGIN OPTIONS
END OPTIONS

BEGIN GRIDDATA
  STRT LAYERED
    INTERNAL IPRN     12 # STRT Upper Aquifer
        5.523801361694E+002   5.561490048767E+002   5.536160399231E+002   5.462570012329E+002   5.415178329834E+002   5.383512951904E+002   5.378130524780E+002   5.462510134460E+002   5.451845773987E+002   5.339295015320E+002 
        5.301645377441E+002   5.292414632446E+002   5.288622685547E+002   5.290367706299E+002   5.294551381836E+002   5.298758532715E+002   5.302693524780E+002   5.305657672729E+002   5.307322053223E+002   5.308787914429E+002 
        5.309468460083E+002   5.308361867676E+002   5.306627982788E+002   5.305579694824E+002   5.304414436646E+002   5.302681891479E+002   5.300474696045E+002   5.297910100708E+002   5.294971978760E+002   5.291432732544E+002 
        5.288595144043E+002   5.287664439087E+002   5.287213214722E+002   5.287145776978E+002   5.287153110352E+002   5.286554261475E+002   5.286371409912E+002   5.284905535889E+002   5.284127994995E+002   5.284899512329E+002 
        5.286811750488E+002   5.289105731201E+002   5.290846689453E+002   5.293638773804E+002   5.296386251831E+002   5.299472764282E+002   5.302708041382E+002   5.306092429810E+002   5.309638907471E+002   5.313250662231E+002 
        5.317344511719E+002   5.322051063232E+002   5.327115882568E+002   5.332695625610E+002   5.339578051758E+002   5.347793907471E+002   5.357086262207E+002   5.367470894775E+002   5.378706362305E+002   5.390358405762E+002 
        5.402297095947E+002   5.414357714844E+002   5.426199651489E+002   5.437756231079E+002   5.449015883789E+002   5.460267539062E+002   5.471401223145E+002   5.482516492310E+002   5.492509525757E+002   5.500068590088E+002 
        5.504940759888E+002   5.507822332153E+002   5.509424965820E+002   5.510279451294E+002   5.510681058960E+002   5.510913463745E+002   5.511476960449E+002   5.512636404419E+002   5.514039689331E+002   5.515380891724E+002 
        5.516541595459E+002   5.517328320313E+002   5.517606749268E+002   5.518566458740E+002   5.521091691895E+002   5.522809298096E+002   5.524116849365E+002   5.526074248657E+002   5.527437871094E+002   5.529076310425E+002 
        5.530988952026E+002   5.533176115723E+002   5.534454517822E+002   5.533802993774E+002   5.532448156128E+002   5.531964366455E+002   5.532703273926E+002   5.533808532104E+002   5.535585214233E+002   5.538114993286E+002 
        5.541554282227E+002   5.545835747681E+002   5.551116376343E+002   5.556967095947E+002   5.563490487671E+002   5.570348793335E+002   5.575901178589E+002   5.579496748047E+002   5.581846483154E+002   5.584005045166E+002 
        5.587492072144E+002   5.590827863159E+002   5.600686485535E+002   5.595841915344E+002   5.594635267761E+002   5.582400085571E+002   5.580328796570E+002   5.574752004578E+002   5.556743657349E+002   5.566068755432E+002 
        5.554543208496E+002   5.544175868652E+002   5.555265150024E+002   5.533915115906E+002   5.523310035034E+002   5.522765036987E+002   5.498943931152E+002   4.881509461365E+002 
        5.484145294922E+002   5.542807059692E+002   5.573838297546E+002   5.499125679810E+002   5.435160355835E+002   5.399370866638E+002   5.357115747803E+002   5.366699885620E+002   5.376833318359E+002   5.308798175415E+002 
        5.294691613892E+002   5.288348713928E+002   5.286735687866E+002   5.286954734497E+002   5.288215159302E+002   5.290860527344E+002   5.294740326538E+002   5.299897971802E+002   5.305508154297E+002   5.310468997803E+002 
        5.315639398804E+002   5.322059354248E+002   5.329202252197E+002   5.336328562622E+002   5.342970361328E+002   5.348430479126E+002   5.351036865234E+002   5.348371481934E+002   5.339975579834E+002   5.329328258667E+002 
        5.319889213257E+002   5.312026576538E+002   5.305365015869E+002   5.300151359863E+002   5.298897750854E+002   5.299517872925E+002   5.296041318970E+002   5.299845864258E+002   5.312088958130E+002   5.323745402832E+002 
        5.334075204468E+002   5.342687321167E+002   5.351734231567E+002   5.364066737671E+002   5.378401436157E+002   5.386160886230E+002   5.393689653931E+002   5.399230878906E+002   5.402756983643E+002   5.406875704346E+002 
        5.410212971191E+002   5.413420719604E+002   5.416466436768E+002   5.423222761230E+002   5.428274163208E+002   5.431635529785E+002   5.435834687500E+002   5.440069584351E+002   5.444816212158E+002   5.449645703125E+002 
        5.454800053101E+002   5.460614729614E+002   5.466900695801E+002   5.473148311157E+002   5.479193440552E+002   5.484213051147E+002   5.488328780518E+002   5.491792050781E+002   5.495026013184E+002   5.498097757568E+002 
        5.500630233154E+002   5.502891418457E+002   5.504629698486E+002   5.505245308838E+002   5.504528153076E+002   5.501531143188E+002   5.496464531250E+002   5.491583084106E+002   5.487824940796E+002   5.485006661377E+002 
        5.481786568604E+002   5.478499951782E+002   5.476377662354E+002   5.475736168213E+002   5.477318256836E+002   5.480948146973E+002   5.485470267334E+002   5.490037224121E+002   5.494739674683E+002   5.499348358765E+002 
        5.504225921631E+002   5.509073673096E+002   5.513082818604E+002   5.516347588501E+002   5.518854223022E+002   5.520989332275E+002   5.523167030640E+002   5.525759973755E+002   5.528584432983E+002   5.531479675903E+002 
        5.534833945923E+002   5.538651859131E+002   5.542828838501E+002   5.547153084106E+002   5.551776843872E+002   5.556302270508E+002   5.560588158569E+002   5.564678938599E+002   5.568406992188E+002   5.571840250244E+002 
        5.574386590576E+002   5.576352742310E+002   5.583275569092E+002   5.580639819031E+002   5.574694809021E+002   5.557106149353E+002   5.554052653076E+002   5.530280718689E+002   5.537141054993E+002   5.556880090088E+002 
        5.548706891235E+002   5.553583286194E+002   5.561325904419E+002   5.527766787170E+002   5.516289214844E+002   5.500179023193E+002   5.496623607666E+002   5.422924135498E+002 
        5.450556067383E+002   5.476485758850E+002   5.574635704895E+002   5.547690322388E+002   5.487219272095E+002   5.439068470642E+002   5.400040449097E+002   5.347633177307E+002   5.313684557861E+002   5.299564404297E+002 
        5.291003982117E+002   5.290109237122E+002   5.289742679443E+002   5.290366565552E+002   5.291038722534E+002   5.292300374146E+002   5.295087132568E+002   5.298433629150E+002   5.302263521729E+002   5.306191625977E+002 
        5.310257640381E+002   5.314328529053E+002   5.317892073364E+002   5.321944803467E+002   5.325751007080E+002   5.330009815674E+002   5.335119038696E+002   5.340711473999E+002   5.346358153687E+002   5.351783463745E+002 
        5.355036616821E+002   5.355892338867E+002   5.355572160034E+002   5.354152065430E+002   5.347896266479E+002   5.338008541260E+002   5.330124300537E+002   5.326081111450E+002   5.324424093018E+002   5.320747712402E+002 
        5.319229505005E+002   5.321231945801E+002   5.330081561279E+002   5.343652180786E+002   5.363622294312E+002   5.387956590576E+002   5.404711858521E+002   5.412596549683E+002   5.414825696411E+002   5.414813303223E+002 
        5.413226999512E+002   5.411232683105E+002   5.409267212524E+002   5.410699483643E+002   5.414812187500E+002   5.419079763794E+002   5.422262225952E+002   5.424256576538E+002   5.427126560669E+002   5.430011275024E+002 
        5.431871407471E+002   5.434528259277E+002   5.437355372314E+002   5.440643760376E+002   5.444073702393E+002   5.447586692505E+002   5.450274096680E+002   5.451986802979E+002   5.452813570557E+002   5.453721829834E+002 
        5.455587723389E+002   5.458824251099E+002   5.463240859375E+002   5.468115393066E+002   5.472557247314E+002   5.476262411499E+002   5.479514105835E+002   5.482333249512E+002   5.484390360107E+002   5.485704283447E+002 
        5.486247103882E+002   5.485605440674E+002   5.483907533569E+002   5.480530059814E+002   5.475762962036E+002   5.470136935425E+002   5.464132155762E+002   5.458442745361E+002   5.452909024658E+002   5.447502116699E+002 
        5.442292700806E+002   5.438289408569E+002   5.436110070801E+002   5.435416118774E+002   5.435654104004E+002   5.436831268921E+002   5.438412151489E+002   5.441259439697E+002   5.444857326050E+002   5.448585246582E+002 
        5.452089063721E+002   5.455815416260E+002   5.459759749756E+002   5.463612440796E+002   5.467371257935E+002   5.471318967896E+002   5.475456726685E+002   5.479879019775E+002   5.484128918457E+002   5.488761322021E+002 
        5.493746525879E+002   5.498097088623E+002   5.516976304749E+002   5.539524184753E+002   5.544439184998E+002   5.532741900635E+002   5.521196527832E+002   5.513900669922E+002   5.517808791687E+002   5.528035158569E+002 
        5.558984371460E+002   5.583031665100E+002   5.568221892944E+002   5.526749159546E+002   5.518531294128E+002   5.490395539368E+002   5.484068339783E+002   5.469660115601E+002 
        5.369681117920E+002   5.434471640930E+002   5.518648995483E+002   5.552279563660E+002   5.536559570435E+002   5.481673158142E+002   5.377847697083E+002   5.303898154968E+002   5.295276661499E+002   5.293556827454E+002 
        5.294406823975E+002   5.299748699585E+002   5.305507227173E+002   5.307927474976E+002   5.308807149048E+002   5.311909932861E+002   5.316153137207E+002   5.320865607300E+002   5.326524558716E+002   5.332464594116E+002 
        5.338690135498E+002   5.345503561401E+002   5.354028249512E+002   5.372813211060E+002   5.417631561890E+002   5.437937852783E+002   5.416684832153E+002   5.415842610474E+002   5.415710292358E+002   5.414337737427E+002 
        5.412115540161E+002   5.410933175659E+002   5.410025468750E+002   5.410460092773E+002   5.414282682495E+002   5.415460737915E+002   5.414836170654E+002   5.409998230591E+002   5.404045781250E+002   5.398687733765E+002 
        5.399875003052E+002   5.398299960938E+002   5.384803970337E+002   5.372995496826E+002   5.361618316040E+002   5.352754347534E+002   5.346936392822E+002   5.342953740234E+002   5.340238078613E+002   5.337536234741E+002 
        5.335452890625E+002   5.334401202393E+002   5.334612587280E+002   5.335800684204E+002   5.337198646851E+002   5.338578994751E+002   5.341201064453E+002   5.344154582520E+002   5.345198709717E+002   5.346187775879E+002 
        5.347090957642E+002   5.348329437256E+002   5.348963804321E+002   5.349521701660E+002   5.351676888428E+002   5.354732870483E+002   5.358699709473E+002   5.362038148193E+002   5.365486021729E+002   5.369318026733E+002 
        5.372855891724E+002   5.376490916138E+002   5.381391976929E+002   5.386895596924E+002   5.392818308105E+002   5.398652753906E+002   5.403366013184E+002   5.407465631714E+002   5.410948319702E+002   5.414044020996E+002 
        5.417583713379E+002   5.421202050781E+002   5.424996712036E+002   5.428264514771E+002   5.429979511108E+002   5.430275684204E+002   5.430264003296E+002   5.429752376099E+002   5.428673587036E+002   5.427419060059E+002 
        5.425969904785E+002   5.424135391846E+002   5.421972266846E+002   5.420291242676E+002   5.419090240479E+002   5.417968009033E+002   5.416199622192E+002   5.414300794678E+002   5.412950985718E+002   5.412246690063E+002 
        5.411663135986E+002   5.411707783813E+002   5.412706619263E+002   5.414145579224E+002   5.414413908691E+002   5.417935541992E+002   5.419175642700E+002   5.421503318481E+002   5.424031647339E+002   5.427576746826E+002 
        5.431159675903E+002   5.434427650757E+002   5.458488145020E+002   5.498741737183E+002   5.510745496826E+002   5.513467050171E+002   5.510624315796E+002   5.505844006531E+002   5.487711937866E+002   5.490024208435E+002 
        5.510617230652E+002   5.542085321838E+002   5.514897897278E+002   5.486654827820E+002   5.462884483887E+002   5.456584724365E+002   5.472562138977E+002   5.474762708435E+002 
        5.309629105469E+002   5.332237336548E+002   5.403387982422E+002   5.476480704468E+002   5.491703317078E+002   5.422060971436E+002   5.302700488159E+002   5.291993273376E+002   5.301519124878E+002   5.302808785034E+002 
        5.310686566223E+002   5.338104733032E+002   5.356003497314E+002   5.360916598511E+002   5.366339254761E+002   5.371494361572E+002   5.376382141724E+002   5.381971934814E+002   5.389263426514E+002   5.397882139282E+002 
        5.406733269043E+002   5.416157466431E+002   5.426559153442E+002   5.438669431763E+002   5.454490327759E+002   5.478055974121E+002   5.512036353760E+002   5.501736851196E+002   5.494722955933E+002   5.495698718872E+002 
        5.496688920288E+002   5.497692738647E+002   5.498468859253E+002   5.498840009155E+002   5.499849223633E+002   5.507172252808E+002   5.508218966064E+002   5.503477293091E+002   5.490605621338E+002   5.474886589966E+002 
        5.471651134644E+002   5.468451060181E+002   5.466357380371E+002   5.464948786621E+002   5.464071896973E+002   5.466023013306E+002   5.456442056885E+002   5.440601928101E+002   5.419384756470E+002   5.402690175781E+002 
        5.397182548828E+002   5.394203939819E+002   5.391808579712E+002   5.389164295044E+002   5.386004915771E+002   5.383882454834E+002   5.382459523926E+002   5.379180762939E+002   5.376757105103E+002   5.373453538208E+002 
        5.360135524902E+002   5.356346500854E+002   5.355215676270E+002   5.353149284668E+002   5.350394227905E+002   5.347014260864E+002   5.345986063843E+002   5.346186386108E+002   5.346349077759E+002   5.346326972656E+002 
        5.345779259033E+002   5.345452008057E+002   5.345826268921E+002   5.346094904175E+002   5.347048085938E+002   5.348351527710E+002   5.349917030640E+002   5.350890478516E+002   5.353139579468E+002   5.354478447876E+002 
        5.355149201660E+002   5.354844306641E+002   5.354552202759E+002   5.355479401855E+002   5.356894902344E+002   5.359181292725E+002   5.362112559204E+002   5.365917249756E+002   5.370121636963E+002   5.374483987427E+002 
        5.378462067871E+002   5.382023032227E+002   5.385887324829E+002   5.389613866577E+002   5.393353774414E+002   5.396458798218E+002   5.399113517456E+002   5.401604158936E+002   5.404236983032E+002   5.406760743408E+002 
        5.408791427002E+002   5.410530781860E+002   5.412026819458E+002   5.412790682983E+002   5.413281747437E+002   5.413115230103E+002   5.412057115479E+002   5.410111549683E+002   5.408013945923E+002   5.405935163574E+002 
        5.404319173584E+002   5.403592437744E+002   5.420211808411E+002   5.451626515442E+002   5.465296214233E+002   5.465550857239E+002   5.459485341919E+002   5.474560838562E+002   5.468061390564E+002   5.454933685059E+002 
        5.454671339478E+002   5.467810957031E+002   5.458308783630E+002   5.452843367859E+002   5.446235140442E+002   5.454386709290E+002   5.478923236206E+002   5.501558784302E+002 
        5.263042466736E+002   5.253977016296E+002   5.272315698608E+002   5.315503302673E+002   5.323901918091E+002   5.293949336670E+002   5.273229744812E+002   5.303319582092E+002   5.313223312927E+002   5.328038011780E+002 
        5.369887432312E+002   5.423858253113E+002   5.445301768188E+002   5.452579954834E+002   5.460450189209E+002   5.468479622803E+002   5.476466494751E+002   5.483746158447E+002   5.490730656128E+002   5.497517808228E+002 
        5.503544417114E+002   5.508180838013E+002   5.511502452393E+002   5.514619168701E+002   5.519792142334E+002   5.525785726318E+002   5.543271733398E+002   5.544610220337E+002   5.536441923828E+002   5.529637677002E+002 
        5.522791177368E+002   5.519042732544E+002   5.518956054077E+002   5.518853945923E+002   5.518777691040E+002   5.518827706909E+002   5.518673462524E+002   5.522342136230E+002   5.531263598022E+002   5.528769375610E+002 
        5.518337794189E+002   5.503208890991E+002   5.487170632324E+002   5.482342778320E+002   5.481315101318E+002   5.480674082031E+002   5.479561160278E+002   5.478253320312E+002   5.480902753906E+002   5.479407807007E+002 
        5.466370220947E+002   5.449044784546E+002   5.431069942627E+002   5.417828343506E+002   5.413452971191E+002   5.413174975586E+002   5.412902260742E+002   5.411946142578E+002   5.410841446533E+002   5.412055997314E+002 
        5.414737721558E+002   5.407570546875E+002   5.397498178711E+002   5.384274320068E+002   5.381929237061E+002   5.377483200684E+002   5.368763292847E+002   5.365937557373E+002   5.364955565186E+002   5.363414248047E+002 
        5.362557253418E+002   5.365883378296E+002   5.357139419556E+002   5.357193470459E+002   5.357745676880E+002   5.357202159424E+002   5.355297155762E+002   5.354333084717E+002   5.352978007812E+002   5.351856826172E+002 
        5.349556867676E+002   5.348384747925E+002   5.346060104980E+002   5.345334274292E+002   5.345525083008E+002   5.346663452148E+002   5.347250086670E+002   5.347366758423E+002   5.347140693359E+002   5.347175393066E+002 
        5.349022783203E+002   5.350637706909E+002   5.352596968384E+002   5.352522898560E+002   5.354326050415E+002   5.356604376831E+002   5.359031255493E+002   5.360927385864E+002   5.362514170532E+002   5.363920833740E+002 
        5.365439133301E+002   5.367325708618E+002   5.369383988647E+002   5.371830239258E+002   5.374172890015E+002   5.376289863892E+002   5.378462778320E+002   5.380147836914E+002   5.380562457886E+002   5.380198273926E+002 
        5.379208723145E+002   5.379237170410E+002   5.387104780945E+002   5.406341786987E+002   5.414264886597E+002   5.417220299377E+002   5.424902202209E+002   5.442088284363E+002   5.444367606079E+002   5.435672073914E+002 
        5.432515798828E+002   5.437285965271E+002   5.441214457336E+002   5.443903086853E+002   5.449327907654E+002   5.463115405640E+002   5.506204810852E+002   5.526381185120E+002 
        5.257552473389E+002   5.247907605957E+002   5.223595423279E+002   5.236552437805E+002   5.270754155457E+002   5.259109566345E+002   5.282483680115E+002   5.314110490540E+002   5.364135185547E+002   5.421594739685E+002 
        5.504094442627E+002   5.556985226624E+002   5.542488897095E+002   5.538338820801E+002   5.536254528198E+002   5.542721173096E+002   5.549057449951E+002   5.553971107788E+002   5.558534412842E+002   5.563560419312E+002 
        5.568861633301E+002   5.572831663208E+002   5.574520771484E+002   5.574936405640E+002   5.575340924683E+002   5.575584743042E+002   5.575617557983E+002   5.576423889160E+002   5.577748305664E+002   5.578266916504E+002 
        5.577930991821E+002   5.577886431885E+002   5.578714298706E+002   5.579986105347E+002   5.580340838013E+002   5.577889906616E+002   5.573898014526E+002   5.569364241943E+002   5.563160842285E+002   5.555068186035E+002 
        5.547028652344E+002   5.541151448364E+002   5.535048114624E+002   5.528228832397E+002   5.522680650635E+002   5.516993258057E+002   5.508962828979E+002   5.500849122925E+002   5.493333533936E+002   5.486444617310E+002 
        5.479977288208E+002   5.473775302734E+002   5.467437337646E+002   5.460379564209E+002   5.452814790649E+002   5.445794384155E+002   5.439118211670E+002   5.432426741333E+002   5.425938568115E+002   5.419724187012E+002 
        5.413539392700E+002   5.407798237915E+002   5.402530031128E+002   5.398014132690E+002   5.393166211548E+002   5.387681936035E+002   5.382121638184E+002   5.376968297729E+002   5.372809370117E+002   5.369981122437E+002 
        5.367557108765E+002   5.365367476807E+002   5.364055869141E+002   5.363245936279E+002   5.362133363037E+002   5.360594028931E+002   5.358745625000E+002   5.357975732422E+002   5.356880105591E+002   5.356236126709E+002 
        5.356319490967E+002   5.355276592407E+002   5.353946022949E+002   5.352477115479E+002   5.350229424438E+002   5.348688829956E+002   5.348299979248E+002   5.348664729614E+002   5.349237720947E+002   5.348951152344E+002 
        5.348986243286E+002   5.349404359741E+002   5.349537840576E+002   5.349745587158E+002   5.350040559082E+002   5.350661441040E+002   5.350997465820E+002   5.351343005371E+002   5.352651045532E+002   5.355377518311E+002 
        5.357420469971E+002   5.357562051392E+002   5.358078225708E+002   5.359126807861E+002   5.361436237183E+002   5.362842352295E+002   5.364633065186E+002   5.366547081299E+002   5.368611922607E+002   5.370277204590E+002 
        5.372179660645E+002   5.374287791138E+002   5.386404575684E+002   5.410872955261E+002   5.417184808838E+002   5.410678959900E+002   5.414270676147E+002   5.439560484314E+002   5.444697847900E+002   5.437829164429E+002 
        5.443409143372E+002   5.452598650330E+002   5.463253217346E+002   5.461687864990E+002   5.465384839600E+002   5.482636570007E+002   5.525570188110E+002   5.547602326660E+002 
        5.247143780945E+002   5.246105385681E+002   5.214923679810E+002   5.206155182007E+002   5.251432588196E+002   5.239648447693E+002   5.271749567932E+002   5.319647777649E+002   5.402240999756E+002   5.537298903931E+002 
        5.622220762573E+002   5.615975078064E+002   5.603021766357E+002   5.601819564819E+002   5.601343110352E+002   5.602187165527E+002   5.603640208130E+002   5.605137282104E+002   5.606953924561E+002   5.607726373291E+002 
        5.609866322632E+002   5.612632235718E+002   5.614265117187E+002   5.614659409790E+002   5.614432219238E+002   5.613589363403E+002   5.612603820190E+002   5.612419161377E+002   5.612491290894E+002   5.611919721069E+002 
        5.609975520020E+002   5.606535222168E+002   5.603184395142E+002   5.599192393188E+002   5.594789136963E+002   5.590773889771E+002   5.586626187744E+002   5.582143990479E+002   5.576541598511E+002   5.572781261597E+002 
        5.570542262573E+002   5.569139313354E+002   5.568301467285E+002   5.564543917847E+002   5.559123212891E+002   5.553299813843E+002   5.547538630981E+002   5.540941868896E+002   5.532872141724E+002   5.524091557617E+002 
        5.514966264038E+002   5.506292330933E+002   5.498022994995E+002   5.490908210449E+002   5.484362741699E+002   5.477860787354E+002   5.471368432617E+002   5.464489786987E+002   5.457690283813E+002   5.451005412598E+002 
        5.444971657104E+002   5.439054096680E+002   5.432734204712E+002   5.424724398804E+002   5.416154432983E+002   5.406488610229E+002   5.397894658813E+002   5.391447593384E+002   5.386955481567E+002   5.383344039917E+002 
        5.381168127441E+002   5.379490772705E+002   5.377869913330E+002   5.376412229004E+002   5.375734284058E+002   5.375268074341E+002   5.375012813721E+002   5.375031986694E+002   5.375563059082E+002   5.375969497681E+002 
        5.376202296143E+002   5.376196234131E+002   5.376047769775E+002   5.375785274658E+002   5.374769263916E+002   5.372605023804E+002   5.368879644775E+002   5.365015650024E+002   5.362699389648E+002   5.361678991089E+002 
        5.363526583252E+002   5.366837192993E+002   5.368312891846E+002   5.368742785645E+002   5.367731008911E+002   5.364690424194E+002   5.360260513916E+002   5.355660061646E+002   5.351759852905E+002   5.350696367798E+002 
        5.353453024292E+002   5.356991110229E+002   5.358700022583E+002   5.356259046631E+002   5.355149847412E+002   5.357084710693E+002   5.360605961914E+002   5.367938417969E+002   5.380419436035E+002   5.394687052002E+002 
        5.407165060425E+002   5.416154321899E+002   5.441290056824E+002   5.494439754700E+002   5.509631128113E+002   5.486469795044E+002   5.423709577576E+002   5.440192669739E+002   5.454879273743E+002   5.468195191162E+002 
        5.480614668518E+002   5.481782606995E+002   5.486209088928E+002   5.492948245911E+002   5.488460507568E+002   5.504495111633E+002   5.536335217102E+002   5.550968951050E+002 
        5.200427770691E+002   5.198501240967E+002   5.176212630676E+002   5.187848398376E+002   5.226148067566E+002   5.200039947510E+002   5.258618647156E+002   5.317805152588E+002   5.360221427612E+002   5.493264260925E+002 
        5.620375602722E+002   5.677932763000E+002   5.688770039062E+002   5.688185690308E+002   5.687425643921E+002   5.685978602295E+002   5.683425903320E+002   5.679923471069E+002   5.676146308594E+002   5.673383068848E+002 
        5.670551821289E+002   5.667160836792E+002   5.664069664307E+002   5.661721307983E+002   5.659863820801E+002   5.660421578369E+002   5.661763181152E+002   5.661269463501E+002   5.658212173462E+002   5.651454976196E+002 
        5.643091217651E+002   5.637374707642E+002   5.634321884155E+002   5.634778303833E+002   5.635152167969E+002   5.633054252930E+002   5.628104452515E+002   5.622613167725E+002   5.616799019165E+002   5.610290827026E+002 
        5.605400511475E+002   5.602968040771E+002   5.603535680542E+002   5.605469794312E+002   5.606574916382E+002   5.604695962524E+002   5.599365519409E+002   5.591377308350E+002   5.579556326904E+002   5.568362103271E+002 
        5.561098934326E+002   5.554771035156E+002   5.548577109375E+002   5.542736674805E+002   5.536737912598E+002   5.529991013184E+002   5.523334470215E+002   5.514272420044E+002   5.504400187378E+002   5.494138930054E+002 
        5.483999278564E+002   5.475036117554E+002   5.467330662842E+002   5.459086012573E+002   5.450914252319E+002   5.441771028442E+002   5.431936567383E+002   5.422700067749E+002   5.415041989746E+002   5.409269317627E+002 
        5.404664265137E+002   5.400673175659E+002   5.397109061890E+002   5.393898216553E+002   5.391261433105E+002   5.389307353516E+002   5.388131069946E+002   5.387757847290E+002   5.387596527100E+002   5.386136329956E+002 
        5.383874973755E+002   5.382395532227E+002   5.380645828247E+002   5.379035136108E+002   5.378191810303E+002   5.378657359619E+002   5.380459267578E+002   5.381188017578E+002   5.379902828979E+002   5.379048385620E+002 
        5.381006913452E+002   5.386935657349E+002   5.392569978027E+002   5.396502404175E+002   5.401037872925E+002   5.405808814697E+002   5.409752005615E+002   5.412458133545E+002   5.413428275757E+002   5.414816899414E+002 
        5.416801242676E+002   5.420406096802E+002   5.419035960693E+002   5.410710113525E+002   5.405273292847E+002   5.404279869385E+002   5.402469497070E+002   5.404132870483E+002   5.409158588867E+002   5.412775527954E+002 
        5.415785349731E+002   5.421856648560E+002   5.472646971741E+002   5.502673801270E+002   5.473035218506E+002   5.488750473145E+002   5.441531344055E+002   5.446297883972E+002   5.508921325439E+002   5.528561725708E+002 
        5.542696672302E+002   5.522286049438E+002   5.498254628784E+002   5.503421131409E+002   5.500990399658E+002   5.501259492310E+002   5.517877505920E+002   5.535256673645E+002 
        5.130626765991E+002   5.130212406311E+002   5.140964423523E+002   5.151995145813E+002   5.166483442017E+002   5.172603268066E+002   5.249818359070E+002   5.304223279785E+002   5.329936419067E+002   5.427169559448E+002 
        5.586545214355E+002   5.667147195129E+002   5.694267990112E+002   5.699197150269E+002   5.702993931274E+002   5.705085300293E+002   5.705507116699E+002   5.704697955933E+002   5.703546774902E+002   5.702659264526E+002 
        5.701834495239E+002   5.701773598633E+002   5.701873369751E+002   5.701511147461E+002   5.700210640869E+002   5.699120687866E+002   5.696700717163E+002   5.694146940918E+002   5.693859954834E+002   5.694232892456E+002 
        5.694488956299E+002   5.694395935669E+002   5.694605910034E+002   5.694719848633E+002   5.693146374512E+002   5.688303860474E+002   5.680432012329E+002   5.672579129028E+002   5.665220945435E+002   5.656069532471E+002 
        5.652745512695E+002   5.659241494141E+002   5.661845857544E+002   5.662399763184E+002   5.659595020142E+002   5.654056239014E+002   5.647139643555E+002   5.640450203247E+002   5.634699386597E+002   5.628707964478E+002 
        5.622103603516E+002   5.615180633545E+002   5.607700708008E+002   5.598781255493E+002   5.589555006104E+002   5.579396532593E+002   5.568517214966E+002   5.557460000610E+002   5.546617999268E+002   5.536841008911E+002 
        5.528266981812E+002   5.519410228271E+002   5.507671765137E+002   5.494797544556E+002   5.484172141724E+002   5.475490618896E+002   5.468154406738E+002   5.461946783447E+002   5.457159913940E+002   5.452709998779E+002 
        5.448578146973E+002   5.444670292358E+002   5.440267949219E+002   5.434968024902E+002   5.428172092896E+002   5.419894013672E+002   5.411728186646E+002   5.405343828735E+002   5.401266034546E+002   5.398928265991E+002 
        5.395124950562E+002   5.390381079712E+002   5.386634248657E+002   5.384903139648E+002   5.384578694458E+002   5.388138220825E+002   5.396083983154E+002   5.405081305542E+002   5.412014858398E+002   5.416507482910E+002 
        5.420143986206E+002   5.425100659790E+002   5.432453400269E+002   5.441299804077E+002   5.449376487427E+002   5.456533604736E+002   5.464439461060E+002   5.475231659546E+002   5.484771901855E+002   5.489166674805E+002 
        5.487419803467E+002   5.482813963623E+002   5.475409095459E+002   5.469995955200E+002   5.465701087646E+002   5.463031132813E+002   5.460583718262E+002   5.456510264282E+002   5.451878464355E+002   5.448174786377E+002 
        5.445663126221E+002   5.441796052246E+002   5.430004660400E+002   5.389211109375E+002   5.399259908081E+002   5.416322867676E+002   5.432753487183E+002   5.462339349915E+002   5.493342138855E+002   5.522132535645E+002 
        5.570262653320E+002   5.549332490784E+002   5.520403516968E+002   5.535884868774E+002   5.532027017578E+002   5.524397446716E+002   5.519452793457E+002   5.538374349731E+002 
        5.117356881104E+002   5.116374359741E+002   5.128025514526E+002   5.130834637451E+002   5.140447001343E+002   5.161145220337E+002   5.223476094360E+002   5.274477162476E+002   5.315758560791E+002   5.392136019897E+002 
        5.553110070190E+002   5.636816101685E+002   5.658083886719E+002   5.667745654297E+002   5.675630767822E+002   5.678163867187E+002   5.677532165527E+002   5.676212744141E+002   5.676969793701E+002   5.678416351318E+002 